Version 4
SHEET 1 880 680
WIRE 160 112 -16 112
WIRE 240 112 224 112
WIRE 352 112 240 112
WIRE -16 160 -16 112
WIRE 352 160 352 112
WIRE 240 176 240 112
WIRE -16 272 -16 240
WIRE 240 272 240 240
WIRE 240 272 -16 272
WIRE 352 272 352 240
WIRE 352 272 240 272
WIRE 240 288 240 272
FLAG 240 288 0
SYMBOL diode 160 96 M90
WINDOW 0 0 32 VBottom 2
WINDOW 3 32 32 VTop 2
SYMATTR InstName D1
SYMATTR Value 1N914
SYMBOL voltage -16 144 R0
WINDOW 123 0 0 Left 2
WINDOW 39 0 0 Left 2
SYMATTR InstName V1
SYMATTR Value SINE(0 5 50)
SYMBOL res 336 144 R0
SYMATTR InstName R1
SYMATTR Value 4,7k
SYMBOL cap 224 176 R0
SYMATTR InstName C1
SYMATTR Value 10µ
TEXT -50 312 Left 2 !.tran 100m
