Version 4
SHEET 1 880 680
WIRE 288 64 0 64
WIRE 416 64 288 64
WIRE 288 80 288 64
WIRE 416 80 416 64
WIRE 576 80 528 80
WIRE 688 80 576 80
WIRE 0 160 0 64
WIRE 416 160 416 144
WIRE 528 160 528 80
WIRE 528 160 416 160
WIRE 576 160 576 80
WIRE 688 160 688 80
WIRE 288 176 288 144
WIRE 512 176 288 176
WIRE 288 208 288 176
WIRE 416 208 416 160
WIRE 0 304 0 240
WIRE 288 304 288 272
WIRE 288 304 0 304
WIRE 416 304 416 272
WIRE 416 304 288 304
WIRE 512 304 512 176
WIRE 576 304 576 224
WIRE 576 304 512 304
WIRE 688 304 688 240
WIRE 688 304 576 304
WIRE 288 336 288 304
FLAG 288 336 0
SYMBOL voltage 0 144 R0
WINDOW 123 0 0 Left 2
WINDOW 39 0 0 Left 2
SYMATTR InstName V1
SYMATTR Value SINE(0 5 50)
SYMBOL diode 304 144 R180
WINDOW 0 24 64 Left 2
WINDOW 3 24 0 Left 2
SYMATTR InstName D1
SYMATTR Value 1N914
SYMBOL diode 272 208 R0
SYMATTR InstName D2
SYMATTR Value 1N914
SYMBOL diode 400 80 R0
SYMATTR InstName D3
SYMATTR Value 1N914
SYMBOL diode 432 272 R180
WINDOW 0 24 64 Left 2
WINDOW 3 24 0 Left 2
SYMATTR InstName D4
SYMATTR Value 1N914
SYMBOL polcap 560 160 R0
WINDOW 3 24 56 Left 2
SYMATTR InstName C1
SYMATTR Value 10µ
SYMATTR Description Capacitor
SYMATTR Type cap
SYMBOL res 672 144 R0
SYMATTR InstName R1
SYMATTR Value 4,7k
TEXT -34 314 Left 2 !.tran 100ms
