Version 4
SHEET 1 1464 928
WIRE -1168 -240 -1248 -240
WIRE -704 -240 -1168 -240
WIRE -352 -240 -704 -240
WIRE -288 -240 -352 -240
WIRE -208 -240 -288 -240
WIRE 304 -240 -208 -240
WIRE 544 -240 304 -240
WIRE 544 -208 544 -240
WIRE 880 -208 544 -208
WIRE 976 -208 880 -208
WIRE 1040 -208 976 -208
WIRE 544 -192 544 -208
WIRE 304 -176 304 -240
WIRE 304 -176 176 -176
WIRE 880 -160 880 -208
WIRE 976 -160 976 -208
WIRE 176 -128 176 -176
WIRE 416 -112 384 -112
WIRE 496 -112 496 -176
WIRE 304 -64 304 -176
WIRE 176 -16 176 -48
WIRE 176 -16 64 -16
WIRE 240 -16 176 -16
WIRE -1168 16 -1168 -240
WIRE 544 16 544 -96
WIRE 672 16 544 16
WIRE 1248 16 752 16
WIRE -352 32 -352 -240
WIRE -288 32 -288 -240
WIRE 304 48 304 32
WIRE 384 48 384 -112
WIRE 384 48 304 48
WIRE -704 64 -704 -240
WIRE -512 64 -704 64
WIRE -208 64 -208 -240
WIRE -144 64 -144 -48
WIRE 304 80 304 48
WIRE -144 96 -144 64
WIRE -144 96 -160 96
WIRE 176 128 176 -16
WIRE 240 128 176 128
WIRE -704 144 -704 64
WIRE -640 144 -704 144
WIRE -160 144 -160 96
WIRE -1168 176 -1168 96
WIRE -1088 176 -1168 176
WIRE -976 176 -1008 176
WIRE -864 176 -896 176
WIRE -784 176 -864 176
WIRE -640 176 -784 176
WIRE -352 176 -352 112
WIRE -160 176 -352 176
WIRE -448 192 -576 192
WIRE -352 192 -352 176
WIRE -352 192 -384 192
WIRE 64 192 64 -16
WIRE 64 192 -96 192
WIRE -640 208 -736 208
WIRE -288 208 -288 112
WIRE -288 208 -320 208
WIRE -160 208 -288 208
WIRE 544 208 544 16
WIRE -640 240 -672 240
WIRE -208 240 -208 64
WIRE -160 240 -208 240
WIRE 304 272 304 176
WIRE 1248 272 1248 16
WIRE -1168 288 -1168 176
WIRE -864 304 -864 176
WIRE -320 304 -320 208
WIRE -320 304 -432 304
WIRE -672 320 -672 240
WIRE -512 320 -512 128
WIRE -512 320 -672 320
WIRE -288 320 -288 208
WIRE -672 368 -672 320
WIRE -1168 464 -1168 352
WIRE -288 480 -288 400
WIRE -432 560 -432 304
WIRE 688 656 272 656
WIRE 944 656 688 656
WIRE 1104 656 1024 656
WIRE 1184 656 1104 656
WIRE 1248 656 1248 336
WIRE 1248 656 1184 656
WIRE 688 688 688 656
WIRE -736 784 -736 208
WIRE 272 784 272 656
WIRE 272 784 -736 784
WIRE 688 832 688 752
FLAG -1328 -240 0
FLAG -288 480 0
FLAG -144 -48 0
FLAG -784 240 0
FLAG -672 368 0
FLAG -1168 464 0
FLAG 880 -96 0
FLAG 976 -96 0
FLAG 544 272 0
FLAG 688 832 0
FLAG 1104 736 0
FLAG 1184 736 0
FLAG 304 272 0
FLAG -864 384 0
SYMBOL pnp 240 176 M180
SYMATTR InstName Q1
SYMATTR Value 2N3906
SYMBOL npn 240 -64 R0
SYMATTR InstName Q2
SYMATTR Value 2N3904
SYMBOL pmos 496 -96 M180
SYMATTR InstName M1
SYMATTR Value Si9407AEY
SYMBOL res 1120 752 R180
WINDOW 0 36 76 Left 2
WINDOW 3 36 40 Left 2
SYMATTR InstName R1
SYMATTR Value 1R
SYMBOL res 1200 752 R180
WINDOW 0 36 76 Left 2
WINDOW 3 36 40 Left 2
SYMATTR InstName R2
SYMATTR Value 1R
SYMBOL res 928 672 R270
WINDOW 0 32 56 VTop 2
WINDOW 3 0 56 VBottom 2
SYMATTR InstName R3
SYMATTR Value 1k
SYMBOL cap 672 688 R0
SYMATTR InstName C1
SYMATTR Value 22p
SYMBOL ind 656 32 R270
WINDOW 0 32 56 VTop 2
WINDOW 3 5 56 VBottom 2
SYMATTR InstName L1
SYMATTR Value 47µ
SYMBOL schottky 560 272 R180
WINDOW 0 24 64 Left 2
WINDOW 3 24 0 Left 2
SYMATTR InstName D4
SYMATTR Value 1N5819
SYMATTR Description Diode
SYMATTR Type diode
SYMBOL diode -384 176 R90
WINDOW 0 0 32 VBottom 2
WINDOW 3 32 32 VTop 2
SYMATTR InstName D5
SYMATTR Value 1N4148
SYMBOL res -368 16 R0
SYMATTR InstName R4
SYMATTR Value 4.7k
SYMBOL voltage -1232 -240 R90
WINDOW 0 -32 56 VBottom 2
WINDOW 3 32 56 VTop 2
WINDOW 123 0 0 Left 2
WINDOW 39 0 0 Left 2
SYMATTR InstName V1
SYMATTR Value 5
SYMBOL res -1184 0 R0
SYMATTR InstName R5
SYMATTR Value 4.7k
SYMBOL cap -800 176 R0
SYMATTR InstName C2
SYMATTR Value 2.2µ
SYMBOL res -304 16 R0
SYMATTR InstName R8
SYMATTR Value 10k
SYMBOL res -304 304 R0
SYMATTR InstName R9
SYMATTR Value 10k
SYMBOL cap -144 48 R90
WINDOW 0 0 32 VBottom 2
WINDOW 3 32 32 VTop 2
SYMATTR InstName C3
SYMATTR Value 0.1µ
SYMBOL diode -1184 288 R0
SYMATTR InstName D6
SYMATTR Value 1N4148
SYMBOL res 160 -144 R0
SYMATTR InstName R10
SYMATTR Value 4.7k
SYMBOL res 512 -128 R90
WINDOW 0 0 56 VBottom 2
WINDOW 3 32 56 VTop 2
SYMATTR InstName R11
SYMATTR Value 10R
SYMBOL cap 864 -160 R0
SYMATTR InstName C4
SYMATTR Value 0.1µ
SYMBOL cap 960 -160 R0
SYMATTR InstName C5
SYMATTR Value 100µ
SYMBOL res -992 160 R90
WINDOW 0 0 56 VBottom 2
WINDOW 3 32 56 VTop 2
SYMATTR InstName R6
SYMATTR Value 10k
SYMBOL cap -528 64 R0
SYMATTR InstName C6
SYMATTR Value 0.1µ
SYMBOL LED 1232 272 R0
SYMATTR InstName D1
SYMATTR Value LXK2-PW14
SYMATTR Description Diode
SYMATTR Type diode
SYMBOL res -880 160 R90
WINDOW 0 0 56 VBottom 2
WINDOW 3 32 56 VTop 2
SYMATTR InstName R7
SYMATTR Value 5k
SYMBOL res -880 288 R0
SYMATTR InstName R12
SYMATTR Value 11k
SYMBOL AutoGenerated\\LM393A -128 192 R0
SYMATTR InstName U1
SYMBOL AutoGenerated\\LM393A -608 192 M180
SYMATTR InstName U2
TEXT -1348 856 Left 2 !.tran 50u
